#	Name:			1bcu_ligand
#	Creating user name:	suminyi
#	Creation time:		Sun Sep 30 06:48:38 2018

#	Modifying user name:	suminyi
#	Modification time:	Sun Sep 30 06:48:38 2018

@<TRIPOS>MOLECULE
1bcu_ligand
   27    29     1     1     0
SMALL
MMFF94_CHARGES


@<TRIPOS>ATOM
      1 C1          8.9820   23.1820   49.5160 C.ar      1 PRL        -0.1500 
      2 C2          9.6700   23.6490   48.4750 C.ar      1 PRL        -0.1500 
      3 C3         10.6650   22.8510   47.7940 C.ar      1 PRL         0.1000 
      4 C4         10.9020   21.5730   48.2640 C.ar      1 PRL        -0.1500 
      5 C5          9.9390   17.8640   51.1430 C.ar      1 PRL        -0.1500 
      6 C6          9.2310   17.2530   52.1630 C.ar      1 PRL         0.1000 
      7 C7          8.2220   18.0300   52.8520 C.ar      1 PRL        -0.1500 
      8 C8          7.9680   19.2990   52.5280 C.ar      1 PRL        -0.1500 
      9 C9          8.4750   21.2720   51.0580 C.ar      1 PRL        -0.1500 
     10 N10        10.3850   19.7760   49.7680 N.ar      1 PRL        -0.6200 
     11 C11        10.1960   21.0700   49.3360 C.ar      1 PRL         0.3100 
     12 C12         8.6900   19.9650   51.4640 C.ar      1 PRL         0.0000 
     13 C13         9.1900   21.8460   50.0200 C.ar      1 PRL         0.0000 
     14 C14         9.6910   19.1730   50.7930 C.ar      1 PRL         0.3100 
     15 N15        11.2740   23.3260   46.6840 N.pl3     1 PRL        -0.9000 
     16 N16         9.4530   15.9620   52.5020 N.pl3     1 PRL        -0.9000 
     17 H1          8.2489   23.8205   49.9955 H         1 PRL         0.1500 
     18 H2          9.4780   24.6579   48.1280 H         1 PRL         0.1500 
     19 H3         11.6536   20.9575   47.7829 H         1 PRL         0.1500 
     20 H4         10.7001   17.3042   50.6115 H         1 PRL         0.1500 
     21 H5          7.6572   17.5677   53.6535 H         1 PRL         0.1500 
     22 H6          7.2050   19.8431   53.0728 H         1 PRL         0.1500 
     23 H7          7.7239   21.8637   51.5686 H         1 PRL         0.1500 
     24 H8         11.0771   24.2830   46.3581 H         1 PRL         0.4000 
     25 H9         11.9348   22.7308   46.1644 H         1 PRL         0.4000 
     26 H10        10.1726   15.4160   52.0071 H         1 PRL         0.4000 
     27 H11         8.9024   15.5253   53.2550 H         1 PRL         0.4000 
@<TRIPOS>BOND
     1    1   13 ar   
     2    1    2 ar   
     3    2    3 ar   
     4    3   15 1    
     5    3    4 ar   
     6    4   11 ar   
     7   11   10 ar   
     8   11   13 ar   
     9   13    9 ar   
    10    9   12 ar   
    11   12    8 ar   
    12   12   14 ar   
    13   14    5 ar   
    14   14   10 ar   
    15    5    6 ar   
    16    6   16 1    
    17    6    7 ar   
    18    7    8 ar   
    19    1   17 1    
    20    2   18 1    
    21    4   19 1    
    22    5   20 1    
    23    7   21 1    
    24    8   22 1    
    25    9   23 1    
    26   15   24 1    
    27   15   25 1    
    28   16   26 1    
    29   16   27 1    
@<TRIPOS>SUBSTRUCTURE
     1 PRL         1 PERM              0 ****  ****    0 ROOT 
@<TRIPOS>NORMAL
@<TRIPOS>ALT_TYPE
MMFF94_ALT_TYPE_SET 
MMFF94 1 CB 2 CB 3 CB 4 CB 5 CB 6 CB 7 CB 8 CB 9 CB 11 CB 12 CB 13 CB \
14 CB 17 HC 18 HC 19 HC 20 HC 21 HC 22 HC 23 HC 24 HNCC \
25 HNCC 26 HNCC 27 HNCC 10 NPYD 15 NC=C 16 NC=C 
